#	Name:			2wtv_ligand
#	Creating user name:	suminyi
#	Creation time:		Sun Sep 30 06:49:06 2018

#	Modifying user name:	suminyi
#	Modification time:	Sun Sep 30 06:49:06 2018

@<TRIPOS>MOLECULE
2wtv_ligand
   48    52     1     1     0
SMALL
MMFF94_CHARGES


@<TRIPOS>ATOM
      1 C13         0.2390   -8.1290   -4.3300 C.3       1 ZZL         0.3895 
      2 C15         1.5590  -10.1680   -4.3770 C.2       1 ZZL         0.2776 
      3 C17         1.0890  -12.5210   -5.1880 C.ar      1 ZZL         0.1900 
      4 C20         1.7190  -14.4680   -3.8830 C.ar      1 ZZL        -0.1500 
      5 C21         2.2810  -13.6300   -2.9140 C.ar      1 ZZL        -0.1500 
      6 C22         2.2390  -12.2390   -3.0830 C.ar      1 ZZL         0.1900 
      7 C24         2.9340   -9.5980   -4.6240 C.ar      1 ZZL         0.0862 
      8 C26         5.0930   -9.7350   -5.6530 C.ar      1 ZZL         0.1770 
      9 C28         5.4760   -8.5410   -5.0110 C.ar      1 ZZL        -0.1500 
     10 O01         9.5690   -4.9640   -0.1350 O.co2     1 ZZL        -0.9000 
     11 C02         8.7770   -4.1540    0.2010 C.2       1 ZZL         0.9790 
     12 O03         9.1800   -2.9230    0.7240 O.co2     1 ZZL        -0.9000 
     13 C04         7.3020   -4.4660    0.0580 C.ar      1 ZZL        -0.1790 
     14 C05         6.9150   -5.6960   -0.4810 C.ar      1 ZZL        -0.1500 
     15 C06         5.5550   -5.9820   -0.6070 C.ar      1 ZZL        -0.1500 
     16 C07         4.6090   -5.0330   -0.1950 C.ar      1 ZZL         0.1000 
     17 N08         3.2160   -5.3050   -0.4440 N.pl3     1 ZZL        -0.6000 
     18 C09         2.4760   -6.0720   -1.4070 C.ar      1 ZZL         0.7200 
     19 N10         1.1010   -5.9200   -1.4820 N.ar      1 ZZL        -0.6200 
     20 C11         0.4110   -6.6000   -2.4270 C.ar      1 ZZL         0.1600 
     21 C12         1.0880   -7.4230   -3.2650 C.ar      1 ZZL        -0.1435 
     22 N14         0.4600   -9.5510   -4.2780 N.2       1 ZZL        -0.6960 
     23 C16         1.6450  -11.6800   -4.2210 C.ar      1 ZZL         0.0862 
     24 F18         0.5450  -11.9900   -6.3170 F         1 ZZL        -0.1900 
     25 C19         1.1230  -13.9090   -5.0180 C.ar      1 ZZL        -0.1500 
     26 F23         2.8150  -11.4270   -2.1510 F         1 ZZL        -0.1900 
     27 C25         3.8160  -10.2700   -5.4520 C.ar      1 ZZL        -0.1500 
     28 CL1         6.1860  -10.5820   -6.7780 Cl        1 ZZL        -0.1770 
     29 C29         4.5820   -7.8700   -4.1700 C.ar      1 ZZL        -0.1500 
     30 C30         3.3080   -8.4120   -3.9780 C.ar      1 ZZL         0.0000 
     31 C31         2.4830   -7.5850   -3.1770 C.ar      1 ZZL         0.3100 
     32 N32         3.1740   -6.9130   -2.2750 N.ar      1 ZZL        -0.6200 
     33 C33         4.9960   -3.8040    0.3330 C.ar      1 ZZL        -0.1500 
     34 C34         6.3570   -3.5220    0.4630 C.ar      1 ZZL        -0.1500 
     35 H1          0.5187   -7.7538   -5.3255 H         1 ZZL         0.0000 
     36 H2         -0.8248   -7.9194   -4.1447 H         1 ZZL         0.0000 
     37 H3          1.7453  -15.5441   -3.7549 H         1 ZZL         0.1500 
     38 H4          2.7484  -14.0558   -2.0335 H         1 ZZL         0.1500 
     39 H5          6.4703   -8.1395   -5.1698 H         1 ZZL         0.1500 
     40 H6          7.6603   -6.4172   -0.7965 H         1 ZZL         0.1500 
     41 H7          5.2325   -6.9308   -1.0203 H         1 ZZL         0.1500 
     42 H8          2.6004   -4.8343    0.2345 H         1 ZZL         0.4000 
     43 H9         -0.6639   -6.4886   -2.5124 H         1 ZZL         0.1500 
     44 H10         0.6849  -14.5550   -5.7702 H         1 ZZL         0.1500 
     45 H11         3.5227  -11.1944   -5.9362 H         1 ZZL         0.1500 
     46 H12         4.8713   -6.9487   -3.6774 H         1 ZZL         0.1500 
     47 H13         4.2518   -3.0774    0.6384 H         1 ZZL         0.1500 
     48 H14         6.6788   -2.5733    0.8770 H         1 ZZL         0.1500 
@<TRIPOS>BOND
     1   21    1 1    
     2    1   22 1    
     3    2    7 1    
     4   22    2 2    
     5    2   23 1    
     6   23    3 ar   
     7    3   24 1    
     8    3   25 ar   
     9    5    4 ar   
    10   25    4 ar   
    11    6    5 ar   
    12   23    6 ar   
    13    6   26 1    
    14    7   27 ar   
    15    7   30 ar   
    16    8    9 ar   
    17   27    8 ar   
    18    8   28 1    
    19    9   29 ar   
    20   11   10 ar   
    21   11   12 ar   
    22   13   11 1    
    23   14   13 ar   
    24   13   34 ar   
    25   15   14 ar   
    26   16   15 ar   
    27   17   16 1    
    28   16   33 ar   
    29   18   17 1    
    30   19   18 ar   
    31   18   32 ar   
    32   20   19 ar   
    33   20   21 ar   
    34   21   31 ar   
    35   29   30 ar   
    36   30   31 1    
    37   31   32 ar   
    38   33   34 ar   
    39    1   35 1    
    40    1   36 1    
    41    4   37 1    
    42    5   38 1    
    43    9   39 1    
    44   14   40 1    
    45   15   41 1    
    46   17   42 1    
    47   20   43 1    
    48   25   44 1    
    49   27   45 1    
    50   29   46 1    
    51   33   47 1    
    52   34   48 1    
@<TRIPOS>SUBSTRUCTURE
     1 ZZL         1 PERM              0 ****  ****    0 ROOT 
@<TRIPOS>NORMAL
@<TRIPOS>ALT_TYPE
MMFF94_ALT_TYPE_SET 
MMFF94 1 CR 3 CB 4 CB 5 CB 6 CB 7 CB 8 CB 9 CB 13 CB 14 CB 15 CB 16 CB \
18 CB 20 CB 21 CB 23 CB 25 CB 27 CB 29 CB 30 CB 31 CB \
33 CB 34 CB 11 CO2M 2 C=N 35 HC 36 HC 37 HC 38 HC 39 HC \
40 HC 41 HC 43 HC 44 HC 45 HC 46 HC 47 HC 48 HC 42 HNCC \
10 O2CM 12 O2CM 19 NPYD 32 NPYD 22 N=C 17 NC=N 24 F \
26 F 28 CL 
